Version 4
SHEET 1 5945676 13421556
WIRE 2176 -64 2032 -64
WIRE 2368 -64 2176 -64
WIRE 2592 -64 2368 -64
WIRE 2704 -64 2592 -64
WIRE 2832 -64 2704 -64
WIRE 2032 -48 2032 -64
WIRE 2176 -48 2176 -64
WIRE 2592 -48 2592 -64
WIRE 2704 -48 2704 -64
WIRE 2832 -16 2832 -64
WIRE 2896 -16 2832 -16
WIRE 3056 -16 2960 -16
WIRE 3168 -16 3120 -16
WIRE 3216 -16 3168 -16
WIRE 3344 -16 3296 -16
WIRE 3440 -16 3344 -16
WIRE 3552 -16 3440 -16
WIRE 3584 -16 3552 -16
WIRE 3648 -16 3584 -16
WIRE 2896 0 2896 -16
WIRE 2960 0 2960 -16
WIRE 3168 0 3168 -16
WIRE 3344 0 3344 -16
WIRE 3440 0 3440 -16
WIRE 3584 0 3584 -16
WIRE 2032 48 2032 32
WIRE 2592 48 2592 16
WIRE 2704 48 2704 32
WIRE 2704 48 2592 48
WIRE 2368 64 2368 -64
WIRE 2704 64 2704 48
WIRE 2896 96 2896 80
WIRE 2896 96 2832 96
WIRE 2960 96 2960 80
WIRE 3168 96 3168 64
WIRE 3168 96 2960 96
WIRE 3344 96 3344 64
WIRE 3344 96 3168 96
WIRE 3440 96 3440 80
WIRE 3440 96 3344 96
WIRE 3552 96 3440 96
WIRE 2064 112 2016 112
WIRE 2176 112 2176 32
WIRE 2176 112 2128 112
WIRE 3648 112 3648 64
WIRE 2704 144 2704 128
WIRE 2832 144 2832 96
WIRE 2832 144 2704 144
WIRE 3808 192 3696 192
WIRE 3936 192 3888 192
WIRE 1744 208 1648 208
WIRE 1840 208 1744 208
WIRE 1968 208 1904 208
WIRE 2048 208 1968 208
WIRE 2640 208 2128 208
WIRE 2896 208 2640 208
WIRE 3056 208 2960 208
WIRE 3168 208 3120 208
WIRE 3216 208 3168 208
WIRE 3344 208 3296 208
WIRE 3440 208 3344 208
WIRE 3552 208 3552 96
WIRE 3552 208 3440 208
WIRE 3936 208 3936 192
WIRE 1744 224 1744 208
WIRE 1968 224 1968 208
WIRE 2896 224 2896 208
WIRE 2960 224 2960 208
WIRE 3168 224 3168 208
WIRE 3344 224 3344 208
WIRE 3440 224 3440 208
WIRE 1648 240 1648 208
WIRE 3648 256 3648 208
WIRE 2176 272 2176 112
WIRE 2400 272 2176 272
WIRE 2464 272 2400 272
WIRE 2560 272 2544 272
WIRE 2640 272 2640 208
WIRE 2640 272 2624 272
WIRE 2400 288 2400 272
WIRE 1744 320 1744 288
WIRE 1968 320 1968 288
WIRE 2896 320 2896 304
WIRE 2960 320 2960 304
WIRE 3168 320 3168 288
WIRE 3168 320 2960 320
WIRE 3344 320 3344 288
WIRE 3344 320 3168 320
WIRE 3440 320 3440 304
WIRE 3440 320 3344 320
WIRE 3552 320 3440 320
WIRE 2176 336 2176 272
WIRE 3552 336 3552 320
WIRE 2704 352 2704 144
WIRE 2400 384 2400 352
WIRE 1648 400 1648 320
WIRE 2016 400 1648 400
WIRE 2464 432 2336 432
WIRE 2656 432 2544 432
WIRE 1648 464 1648 400
WIRE 1776 464 1648 464
WIRE 1904 464 1856 464
WIRE 2016 464 1968 464
WIRE 1648 480 1648 464
WIRE 1872 528 1760 528
WIRE 2016 528 1872 528
WIRE 1760 544 1760 528
WIRE 1872 544 1872 528
WIRE 2368 560 2368 144
WIRE 2368 560 2336 560
WIRE 2448 560 2368 560
WIRE 2704 560 2704 448
WIRE 2704 560 2528 560
WIRE 1648 576 1648 560
WIRE 2368 576 2368 560
WIRE 2704 576 2704 560
WIRE 2016 592 1968 592
WIRE 1872 624 1872 608
WIRE 1760 656 1760 624
WIRE 1968 656 1968 592
WIRE 1968 656 1760 656
WIRE 2368 656 2368 640
WIRE 1760 672 1760 656
WIRE 2176 672 2176 656
WIRE 2704 672 2704 656
WIRE 1760 752 1760 736
FLAG 2704 672 0
FLAG 1760 752 0
FLAG 1872 624 0
FLAG 1648 576 0
FLAG 2176 672 0
FLAG 1744 320 0
FLAG 1968 320 0
FLAG 2400 384 0
FLAG 2896 320 0
FLAG 2032 48 0
FLAG 2016 112 0
FLAG 3552 -16 +30V
FLAG 2368 656 0
FLAG 2032 -64 IN
FLAG 3552 208 +15V
FLAG 3552 336 0
FLAG 3648 256 0
FLAG 3584 64 0
FLAG 3936 288 0
SYMBOL RES 2688 560 R0
SYMATTR InstName R1
SYMATTR Value 0.1
SYMBOL cap 1744 672 R0
SYMATTR InstName C1
SYMATTR Value 220p
SYMBOL cap 1856 544 R0
SYMATTR InstName C2
SYMATTR Value .1µ
SYMBOL cap 1968 448 R90
WINDOW 0 0 32 VBottom 2
WINDOW 3 32 32 VTop 2
SYMATTR InstName C3
SYMATTR Value 0.001µ
SYMBOL res 1872 448 R90
WINDOW 0 0 56 VBottom 2
WINDOW 3 32 56 VTop 2
SYMATTR InstName R2
SYMATTR Value 100k
SYMBOL res 1744 528 R0
SYMATTR InstName R3
SYMATTR Value 12K
SYMBOL res 1632 464 R0
SYMATTR InstName R4
SYMATTR Value 20K
SYMBOL res 2544 544 R90
WINDOW 0 0 56 VBottom 2
WINDOW 3 32 56 VTop 2
SYMATTR InstName R5
SYMATTR Value 1K
SYMBOL NMOS 2656 352 R0
SYMATTR InstName Q1
SYMATTR Value IRFH5215
SYMBOL res 2560 416 R90
WINDOW 0 0 56 VBottom 2
WINDOW 3 32 56 VTop 2
SYMATTR InstName R6
SYMATTR Value 12
SYMBOL res 1632 224 R0
SYMATTR InstName R7
SYMATTR Value 100k
SYMBOL cap 1728 224 R0
SYMATTR InstName C4
SYMATTR Value 0.001µ
SYMBOL cap 1952 224 R0
SYMATTR InstName C5
SYMATTR Value 0
SYMBOL schottky 1904 192 R90
WINDOW 0 0 32 VBottom 2
WINDOW 3 32 32 VTop 2
SYMATTR InstName D1
SYMATTR Value BAT54
SYMBOL cap 2384 288 R0
SYMATTR InstName C6
SYMATTR Value 22µ
SYMBOL res 2560 256 R90
WINDOW 0 0 56 VBottom 2
WINDOW 3 32 56 VTop 2
SYMATTR InstName R8
SYMATTR Value 39
SYMBOL schottky 2624 256 R90
WINDOW 0 0 32 VBottom 2
WINDOW 3 32 32 VTop 2
SYMATTR InstName D2
SYMATTR Value BAT54
SYMBOL res 2352 48 R0
SYMATTR InstName R9
SYMATTR Value 100k
SYMBOL res 2688 -64 R0
SYMATTR InstName R10
SYMATTR Value 660K
SYMBOL cap 2576 -48 R0
SYMATTR InstName C7
SYMATTR Value 470p
SYMBOL ind2 2976 -16 M0
WINDOW 0 -1 40 Right 2
WINDOW 3 0 65 Right 2
SYMATTR InstName L1
SYMATTR Value 18µ
SYMATTR SpiceLine Rser=.05
SYMBOL ind2 2880 208 R0
WINDOW 0 -6 46 Right 2
WINDOW 3 -5 72 Right 2
SYMATTR InstName L2
SYMATTR Value 18µ
SYMATTR SpiceLine Rser=.1
SYMBOL ind2 2880 96 M180
WINDOW 0 2 80 Right 2
WINDOW 3 1 42 Right 2
SYMATTR InstName L3
SYMATTR Value 17.5µ
SYMATTR SpiceLine Rser=.05
SYMBOL schottky 3056 -32 M90
WINDOW 0 0 32 VBottom 2
WINDOW 3 32 32 VTop 2
SYMATTR InstName D3
SYMATTR Value MBRS340
SYMBOL cap 3152 0 R0
SYMATTR InstName C8
SYMATTR Value 10µ
SYMBOL ind 3200 0 R270
WINDOW 0 32 56 VTop 2
WINDOW 3 5 56 VBottom 2
SYMATTR InstName L4
SYMATTR Value 1µ
SYMATTR SpiceLine Rpar=100
SYMBOL polcap 3328 0 R0
SYMATTR InstName C9
SYMATTR Value 33µ
SYMBOL res 3424 -16 R0
SYMATTR InstName R11
SYMATTR Value 750
SYMBOL VOLTAGE 2032 -64 R0
SYMATTR InstName V1
SYMATTR Value 35
SYMBOL zener 2064 128 R270
WINDOW 0 36 32 VTop 2
WINDOW 3 -4 32 VBottom 2
SYMATTR InstName D4
SYMATTR Value BZX84C15L
SYMBOL diode 2688 128 M180
WINDOW 0 26 65 Left 2
WINDOW 3 24 0 Left 2
SYMATTR InstName D5
SYMATTR Value MURS320
SYMBOL res 2144 192 R90
WINDOW 0 0 56 VBottom 2
WINDOW 3 32 56 VTop 2
SYMATTR InstName R12
SYMATTR Value 0
SYMBOL res 2160 -64 R0
SYMATTR InstName R13
SYMATTR Value 2k
SYMBOL PowerProducts\\LT1245 2176 496 R0
SYMATTR InstName U1
SYMBOL cap 2352 576 R0
SYMATTR InstName C10
SYMATTR Value 50p
SYMBOL res 3632 -32 R0
SYMATTR InstName Rload
SYMATTR Value 30
SYMBOL ind2 2976 208 M0
WINDOW 0 -1 40 Right 2
WINDOW 3 0 65 Right 2
SYMATTR InstName L5
SYMATTR Value 18µ
SYMATTR SpiceLine Rser=.05
SYMBOL schottky 3056 192 M90
WINDOW 0 0 32 VBottom 2
WINDOW 3 32 32 VTop 2
SYMATTR InstName D6
SYMATTR Value MBRS340
SYMBOL cap 3152 224 R0
SYMATTR InstName C11
SYMATTR Value 10µ
SYMBOL ind 3200 224 R270
WINDOW 0 32 56 VTop 2
WINDOW 3 5 56 VBottom 2
SYMATTR InstName L6
SYMATTR Value 1µ
SYMATTR SpiceLine Rpar=100
SYMBOL polcap 3328 224 R0
SYMATTR InstName C12
SYMATTR Value 33µ
SYMBOL res 3424 208 R0
SYMATTR InstName R14
SYMATTR Value 750
SYMBOL cap 3568 0 R0
SYMATTR InstName C13
SYMATTR Value 100µ
SYMBOL NMOS 3696 112 M0
SYMATTR InstName Q2
SYMATTR Value IRFH5215
SYMBOL res 3792 176 M90
WINDOW 0 0 56 VBottom 2
WINDOW 3 32 56 VTop 2
SYMATTR InstName R15
SYMATTR Value 12
SYMBOL voltage 3936 192 R0
WINDOW 123 0 0 Left 0
WINDOW 39 0 0 Left 0
SYMATTR InstName V2
SYMATTR Value PULSE(0 10 2m 1n 1n 2m 2m 1)
TEXT 2928 568 Left 2 !.tran 5m
TEXT 2928 -24 Bottom 2 !K1 L1 L2 L3 L5 1
TEXT 3224 368 Left 2 ;89.6% efficiency @ 20.5W load @ 28V\n20.498W/22.867W\n89.7% efficiency @ 24.5W load @ 35V\n24.506W/27.33W
TEXT 3200 504 Left 2 ;1.046W draw @ 28V input and no load\n0.651W draw @ 22V input and no load\n1.056W draw @ 35V input and no load
TEXT 1968 88 Left 2 ;15V Zener
TEXT 2120 -80 Left 2 ;Start-up regulator
TEXT 2376 56 Left 2 ;Soft-Start
TEXT 2440 624 Left 2 ;Current Sense Filter
TEXT 3712 112 Left 2 ;0% to 100% load step
TEXT 3352 160 Left 2 ;Ballast resistors
TEXT 3184 144 Left 2 ;Output filter
TEXT 3184 -72 Left 2 ;Output filter
TEXT 2840 -248 Center 4 ;DFLY ACE Dual Output Flyback DC/DC Converter\n+30V and +15V output, 24W total, 22V-35V input\n310kHz, Current Mode Control, Magnetic Feedback
TEXT 2736 192 Left 2 ;Aux Output
TEXT 2048 720 Left 2 ;FLIGHT PART USE UC1845A-SP
TEXT 1832 688 Left 2 ;Frequency Set
TEXT 1768 512 Left 2 ;+5V reference
TEXT 1768 384 Left 2 ;+2.5V Feedback
TEXT 2400 224 Left 2 ;Aux Power Rectifier
TEXT 1712 152 Left 2 ;Feedback Rectifier
TEXT 2824 360 Left 2 ;Flyback Transformer RM6\n11 Turns 24AWG Pri\n12 Turns 26AWG all Sec
LINE Normal 2928 304 2928 0 2
