Version 4
SHEET 1 1064 1076
WIRE 464 -128 -752 -128
WIRE -752 -80 -752 -128
WIRE -752 16 -752 0
WIRE -640 16 -640 0
WIRE -640 16 -752 16
WIRE -560 16 -640 16
WIRE -240 16 -304 16
WIRE -240 48 -240 16
WIRE -720 160 -784 160
WIRE -672 160 -720 160
WIRE -512 160 -512 48
WIRE -240 160 -240 128
WIRE -128 160 -240 160
WIRE -672 176 -672 160
WIRE -544 176 -608 176
WIRE -384 192 -480 192
WIRE -304 192 -304 16
WIRE -304 192 -384 192
WIRE -784 208 -784 160
WIRE -560 208 -560 16
WIRE -544 208 -560 208
WIRE -672 288 -672 256
WIRE -608 288 -608 176
WIRE -608 288 -672 288
WIRE -672 304 -672 288
WIRE -672 416 -672 384
WIRE -384 416 -384 192
WIRE -384 416 -672 416
WIRE -128 464 -128 160
WIRE -128 464 -736 464
WIRE -384 528 -480 528
WIRE -192 528 -384 528
WIRE -64 528 -192 528
WIRE 128 528 16 528
WIRE -480 544 -480 528
WIRE -192 592 -192 528
WIRE 16 592 -16 592
WIRE 320 592 16 592
WIRE 16 608 16 592
WIRE -480 640 -480 624
WIRE 128 640 128 528
WIRE 208 640 128 640
WIRE 320 640 320 592
WIRE 320 640 272 640
WIRE 432 640 320 640
WIRE 464 640 464 -128
WIRE 464 640 432 640
WIRE 496 640 464 640
WIRE 544 640 496 640
WIRE -384 656 -384 528
WIRE -352 656 -384 656
WIRE -16 656 -16 592
WIRE -16 656 -32 656
WIRE 128 656 128 640
WIRE 432 656 432 640
WIRE 16 688 16 672
WIRE -736 736 -736 464
WIRE -352 736 -736 736
WIRE 80 736 -32 736
WIRE 432 752 432 720
WIRE -512 816 -576 816
WIRE -416 816 -432 816
WIRE -352 816 -416 816
WIRE 128 816 128 752
WIRE 128 816 -32 816
WIRE -576 832 -576 816
WIRE -416 832 -416 816
WIRE 128 832 128 816
WIRE -192 896 -192 880
WIRE -576 928 -576 896
WIRE -416 928 -416 896
WIRE 128 928 128 912
FLAG -784 288 0
FLAG -512 224 0
FLAG -640 -80 0
FLAG 496 640 VOUT
FLAG -720 160 VBUS
FLAG -128 160 FB
FLAG -480 640 0
FLAG 432 752 0
FLAG -576 928 0
FLAG -192 896 0
FLAG 128 928 0
FLAG 16 688 0
FLAG -480 528 3V3
FLAG -416 928 0
FLAG -512 48 3V3
SYMBOL res -256 32 R0
SYMATTR InstName R2
SYMATTR Value 0
SYMBOL voltage -784 192 R0
SYMATTR InstName V3
SYMATTR Value 16
SYMBOL res -688 160 R0
SYMATTR InstName R3
SYMATTR Value 12k
SYMBOL res -688 288 R0
SYMATTR InstName R4
SYMATTR Value 1.5k
SYMBOL res -656 -96 R0
SYMATTR InstName R5
SYMATTR Value 1.5k
SYMBOL res -768 -96 R0
SYMATTR InstName R6
SYMATTR Value 12k
SYMBOL IND -80 544 R270
WINDOW 0 32 56 VTop 2
WINDOW 3 5 56 VBottom 2
SYMATTR InstName L1
SYMATTR Value 22µ
SYMBOL NMOS 80 656 R0
WINDOW 0 60 20 Left 2
WINDOW 3 60 84 Left 2
SYMATTR InstName Q1
SYMATTR Value Si9804DY
SYMBOL VOLTAGE -480 528 R0
SYMATTR InstName V4
SYMATTR Value 3.3
SYMBOL cap -432 832 R0
SYMATTR InstName C1
SYMATTR Value 150p
SYMBOL cap -592 832 R0
SYMATTR InstName C2
SYMATTR Value .015µ
SYMBOL RES 112 816 R0
SYMATTR InstName R7
SYMATTR Value 14m
SYMBOL res -416 800 R90
WINDOW 0 0 56 VBottom 2
WINDOW 3 32 56 VTop 2
SYMATTR InstName R10
SYMATTR Value 25K
SYMBOL cap 0 608 R0
SYMATTR InstName C3
SYMATTR Value .1µ
SYMBOL polcap 416 656 R0
SYMATTR InstName C4
SYMATTR Value 10µ
SYMATTR SpiceLine Rser=0.065
SYMBOL POWERPRODUCTS\\LT1619 -192 736 R0
SYMATTR InstName U4
SYMBOL schottky 208 656 R270
WINDOW 0 32 32 VTop 2
WINDOW 3 0 32 VBottom 2
SYMATTR InstName D1
SYMATTR Value MBR735
SYMBOL Opamps\\AD8618 -512 128 R0
SYMATTR InstName U1
TEXT 248 320 Left 2 ;VOUT = VBUS+10V
TEXT 88 472 Left 2 ;BOOST CONVERTER
TEXT 312 928 Left 2 !.tran 4m startup
TEXT -560 712 Left 2 ;REF = 1.24V
TEXT -280 352 Left 2 ;300 for ZXCS
