Version 4
SHEET 1 880 680
WIRE 32 -16 32 -64
WIRE 160 -16 32 -16
WIRE 240 -16 240 -32
WIRE 240 -16 224 -16
WIRE 448 -16 240 -16
WIRE 32 0 32 -16
WIRE 448 16 320 16
WIRE -16 64 -144 64
WIRE 752 64 624 64
WIRE 320 112 320 96
WIRE 448 112 320 112
WIRE 32 144 32 96
WIRE 160 144 32 144
WIRE 240 144 224 144
WIRE 448 144 240 144
WIRE -144 160 -144 64
WIRE 32 160 32 144
WIRE 240 160 240 144
WIRE -144 256 -144 224
WIRE -144 384 -144 336
FLAG -144 384 0
FLAG 32 -144 +15v
FLAG 32 240 -15v
FLAG 240 -112 0
FLAG 240 240 0
FLAG 480 -32 +15v
FLAG 480 160 -15v
FLAG 560 128 0
FLAG 368 320 0
FLAG 368 -128 0
FLAG 368 -208 +15v
FLAG 368 240 -15v
SYMBOL voltage -144 240 R0
WINDOW 123 24 124 Left 2
WINDOW 39 0 0 Left 0
WINDOW 3 24 44 Left 2
SYMATTR Value2 AC 1
SYMATTR InstName V1
SYMATTR Value SINE(0 1m 1k)
SYMBOL cap -160 160 R0
SYMATTR InstName C1
SYMATTR Value 72n
SYMBOL njf -16 0 R0
SYMATTR InstName J1
SYMATTR Value 2N4117
SYMBOL res 16 -160 R0
SYMATTR InstName R1
SYMATTR Value 2.2k
SYMBOL res 16 144 R0
SYMATTR InstName R2
SYMATTR Value 2.2k
SYMBOL cap 224 -32 R90
WINDOW 0 0 32 VBottom 2
WINDOW 3 32 32 VTop 2
SYMATTR InstName C2
SYMATTR Value 22µ
SYMBOL cap 224 128 R90
WINDOW 0 0 32 VBottom 2
WINDOW 3 32 32 VTop 2
SYMATTR InstName C3
SYMATTR Value 22µ
SYMBOL res 224 -128 R0
SYMATTR InstName R3
SYMATTR Value 3.9k
SYMBOL res 224 144 R0
SYMATTR InstName R4
SYMATTR Value 3.9k
SYMBOL Opamps\\AD8226 480 64 R0
SYMATTR InstName U1
SYMBOL res 304 0 R0
SYMATTR InstName R5
SYMATTR Value 49.9
SYMBOL voltage 368 -224 R0
SYMATTR InstName V2
SYMATTR Value 15
SYMBOL voltage 368 224 R0
SYMATTR InstName V3
SYMATTR Value -15
TEXT -176 408 Left 2 !.tran 10m
