Version 4
SHEET 1 1076 680
WIRE 448 -112 176 -112
WIRE 768 -112 448 -112
WIRE 176 -80 176 -112
WIRE 448 -64 448 -112
WIRE 640 48 576 48
WIRE 48 80 -80 80
WIRE 176 80 176 0
WIRE 176 80 128 80
WIRE 240 80 176 80
WIRE 320 80 240 80
WIRE 448 80 448 0
WIRE 448 80 400 80
WIRE -80 144 -80 80
WIRE 240 160 240 80
WIRE 576 160 576 48
WIRE 448 176 448 80
WIRE 560 176 448 176
WIRE 768 192 768 -112
WIRE 768 192 624 192
WIRE 560 208 448 208
WIRE -80 304 -80 224
WIRE 48 304 -80 304
WIRE 176 304 128 304
WIRE 240 304 240 224
WIRE 240 304 176 304
WIRE 320 304 240 304
WIRE 448 304 448 208
WIRE 448 304 400 304
WIRE 176 368 176 304
WIRE 448 384 448 304
FLAG 576 224 0
FLAG 640 128 0
FLAG 176 448 0
FLAG 448 448 0
FLAG 608 224 0
SYMBOL voltage -80 128 R0
SYMATTR InstName V1
SYMATTR Value AC 1
SYMBOL res 144 64 R90
WINDOW 0 0 56 VBottom 2
WINDOW 3 32 56 VTop 2
SYMATTR InstName R1
SYMATTR Value 662
SYMBOL res 144 288 R90
WINDOW 0 0 56 VBottom 2
WINDOW 3 32 56 VTop 2
SYMATTR InstName R2
SYMATTR Value 662
SYMBOL res 416 64 R90
WINDOW 0 0 56 VBottom 2
WINDOW 3 32 56 VTop 2
SYMATTR InstName R3
SYMATTR Value 402
SYMBOL res 416 288 R90
WINDOW 0 0 56 VBottom 2
WINDOW 3 32 56 VTop 2
SYMATTR InstName R4
SYMATTR Value 402
SYMBOL cap 224 160 R0
SYMATTR InstName C1
SYMATTR Value 5p
SYMBOL res 160 -96 R0
SYMATTR InstName R5
SYMATTR Value 523
SYMBOL res 160 352 R0
SYMATTR InstName R6
SYMATTR Value 523
SYMBOL cap 432 384 R0
SYMATTR InstName C2
SYMATTR Value 2p
SYMBOL cap 432 -64 R0
SYMATTR InstName C3
SYMATTR Value 2p
SYMBOL voltage 640 32 R0
SYMATTR InstName V2
SYMATTR Value 3.3
SYMBOL Opamps\\ADA4805 592 192 R0
SYMATTR InstName U2
TEXT -114 472 Left 2 !.ac dec 100 1 1G
