Version 4
SHEET 1 880 680
WIRE 192 32 144 32
WIRE 32 48 0 48
WIRE 400 64 144 64
WIRE 464 64 400 64
WIRE 0 144 0 48
WIRE 400 144 336 144
WIRE 464 144 400 144
WIRE 288 224 256 224
WIRE 0 336 0 224
WIRE 192 336 192 32
WIRE 192 336 0 336
WIRE 256 336 256 224
WIRE 256 336 192 336
WIRE 336 336 336 240
WIRE 336 336 256 336
WIRE 0 352 0 336
FLAG 400 64 V5V
FLAG 0 48 V9V
FLAG 0 352 0
FLAG 400 144 FGnd
SYMBOL nmos 288 144 R0
SYMATTR InstName M1
SYMATTR Value IRF510
SYMBOL voltage 0 128 R0
SYMATTR InstName V1
SYMATTR Value 9
SYMBOL AutoGenerated\\78L05 112 48 R0
SYMATTR InstName U1
SYMBOL res 448 48 R0
SYMATTR InstName R1
SYMATTR Value 1000
TEXT -40 376 Left 2 !.tran 0 5 0
