Version 4
SHEET 1 1832 740
WIRE 1296 -464 1264 -464
WIRE 1680 -432 1680 -576
WIRE 1136 -352 1136 -400
WIRE 1264 -352 1264 -464
WIRE 1264 -352 1136 -352
WIRE 1360 -352 1360 -416
WIRE 1456 -352 1360 -352
WIRE 1600 -352 1536 -352
WIRE 1632 -352 1600 -352
WIRE 1600 -336 1600 -352
WIRE 1136 -288 1136 -352
WIRE 1360 -288 1360 -352
WIRE 1600 -256 1600 -272
WIRE 1680 -256 1680 -336
WIRE 1680 -256 1664 -256
WIRE 1264 -240 1264 -352
WIRE 1296 -240 1264 -240
WIRE 1264 -144 1264 -240
WIRE 1504 -144 1264 -144
WIRE 1136 -112 1136 -208
WIRE 1504 -112 1504 -144
WIRE 896 -64 624 -64
WIRE 1072 -64 976 -64
WIRE 1264 -64 1232 -64
WIRE 1440 -64 1344 -64
WIRE 160 -32 160 -64
WIRE 624 -32 624 -64
WIRE 624 -32 160 -32
WIRE 160 32 160 -32
WIRE -224 80 -432 80
WIRE -112 80 -224 80
WIRE 96 80 -32 80
WIRE 1296 112 1264 112
WIRE 1680 128 1680 -256
WIRE 160 208 160 128
WIRE 160 208 -208 208
WIRE 1360 208 1360 160
WIRE 1632 208 1360 208
WIRE -224 224 -224 80
WIRE 160 224 -224 224
WIRE 1136 224 1136 176
WIRE 1264 224 1264 112
WIRE 1264 224 1136 224
WIRE 1136 288 1136 224
WIRE 1360 288 1360 208
WIRE 160 304 160 224
WIRE 1264 336 1264 224
WIRE 1296 336 1264 336
WIRE -208 352 -208 208
WIRE -208 352 -432 352
WIRE -112 352 -208 352
WIRE 96 352 -32 352
WIRE 1680 352 1680 224
WIRE 160 448 160 400
WIRE 608 448 160 448
WIRE 1264 448 1264 336
WIRE 1504 448 1264 448
WIRE 1136 464 1136 368
WIRE 160 480 160 448
WIRE 1504 480 1504 448
WIRE 608 512 608 448
WIRE 896 512 608 512
WIRE 1072 512 976 512
WIRE 1232 528 1232 -64
WIRE 1264 528 1232 528
WIRE 1440 528 1344 528
WIRE 1680 528 1680 432
WIRE 1232 640 1232 528
FLAG -432 160 0
FLAG -432 432 0
FLAG 288 208 0
FLAG 288 128 +3.3V
FLAG 160 -144 +3.3V
FLAG 160 560 +3.3V
FLAG 1056 -736 12v
FLAG 832 -736 batt
FLAG 944 -736 boost
FLAG 1680 -576 batt
FLAG 1360 384 0
FLAG 1680 528 0
FLAG 1136 560 0
FLAG 1136 96 12v
FLAG 1360 64 12v
FLAG 1360 -192 0
FLAG 1136 -16 0
FLAG 832 -656 0
FLAG 944 -656 0
FLAG 1056 -656 0
FLAG 1136 -480 boost
FLAG 1360 -512 boost
FLAG 1504 576 0
FLAG 1504 -16 0
FLAG 1232 720 0
SYMBOL npn 96 32 R0
SYMATTR InstName Q1
SYMATTR Value 2N3904
SYMBOL npn 96 400 M180
SYMATTR InstName Q2
SYMATTR Value 2N3904
SYMBOL res 144 -160 R0
SYMATTR InstName R1
SYMATTR Value 1k
SYMBOL res 144 464 R0
SYMATTR InstName R2
SYMATTR Value 1k
SYMBOL res -16 64 R90
WINDOW 0 0 56 VBottom 2
WINDOW 3 32 56 VTop 2
SYMATTR InstName R3
SYMATTR Value 1k
SYMBOL res -16 336 R90
WINDOW 0 0 56 VBottom 2
WINDOW 3 32 56 VTop 2
SYMATTR InstName R4
SYMATTR Value 1k
SYMBOL voltage 288 112 R0
SYMATTR InstName V1
SYMATTR Value 3.3
SYMBOL voltage -432 64 R0
WINDOW 123 0 0 Left 0
WINDOW 39 0 0 Left 0
SYMATTR InstName V2
SYMATTR Value PULSE(0 3.3 1m 1u 1u 2m 4m)
SYMBOL voltage -432 336 R0
WINDOW 123 0 0 Left 0
WINDOW 39 0 0 Left 0
SYMATTR InstName V3
SYMATTR Value PULSE(0 3.3 0 1u 1u 1m 2m)
SYMBOL nmos 1632 128 R0
SYMATTR InstName M1
SYMATTR Value AP9465GEM
SYMBOL nmos 1632 -432 R0
SYMATTR InstName M2
SYMATTR Value AP9465GEM
SYMBOL npn 1072 464 R0
SYMATTR InstName Q3
SYMATTR Value 2N2222
SYMBOL npn 1296 64 R0
SYMATTR InstName Q4
SYMATTR Value 2N2222
SYMBOL pnp 1296 384 M180
SYMATTR InstName Q5
SYMATTR Value 2N2907
SYMBOL voltage 832 -752 R0
SYMATTR InstName V4
SYMATTR Value 22
SYMBOL voltage 944 -752 R0
SYMATTR InstName V5
SYMATTR Value 30
SYMBOL voltage 1056 -752 R0
SYMATTR InstName V6
SYMATTR Value 12
SYMBOL res 1120 272 R0
SYMATTR InstName R5
SYMATTR Value 0
SYMBOL res 1120 80 R0
SYMATTR InstName R6
SYMATTR Value 10k
SYMBOL res 992 496 R90
WINDOW 0 0 56 VBottom 2
WINDOW 3 32 56 VTop 2
SYMATTR InstName R7
SYMATTR Value 10k
SYMBOL npn 1072 -112 R0
SYMATTR InstName Q6
SYMATTR Value 2N2222
SYMBOL npn 1296 -512 R0
SYMATTR InstName Q7
SYMATTR Value 2N2222
SYMBOL pnp 1296 -192 M180
SYMATTR InstName Q8
SYMATTR Value 2N2907
SYMBOL res 1120 -304 R0
SYMATTR InstName R8
SYMATTR Value 0
SYMBOL res 1120 -496 R0
SYMATTR InstName R9
SYMATTR Value 10k
SYMBOL res 992 -80 R90
WINDOW 0 0 56 VBottom 2
WINDOW 3 32 56 VTop 2
SYMATTR InstName R10
SYMATTR Value 10k
SYMBOL res 1552 -368 R90
WINDOW 0 0 56 VBottom 2
WINDOW 3 32 56 VTop 2
SYMATTR InstName R11
SYMATTR Value 100
SYMBOL zener 1616 -272 R180
WINDOW 0 24 64 Left 2
WINDOW 3 24 0 Left 2
SYMATTR InstName D1
SYMATTR Value MMBZ12VAL
SYMATTR Description Diode
SYMATTR Type diode
SYMBOL res 1664 336 R0
SYMATTR InstName R12
SYMATTR Value 1m
SYMBOL npn 1440 480 R0
SYMATTR InstName Q9
SYMATTR Value 2N2222
SYMBOL res 1360 512 R90
WINDOW 0 0 56 VBottom 2
WINDOW 3 32 56 VTop 2
SYMATTR InstName R13
SYMATTR Value 10k
SYMBOL npn 1440 -112 R0
SYMATTR InstName Q10
SYMATTR Value 2N2222
SYMBOL res 1360 -80 R90
WINDOW 0 0 56 VBottom 2
WINDOW 3 32 56 VTop 2
SYMATTR InstName R14
SYMATTR Value 10k
SYMBOL voltage 1232 624 R0
WINDOW 123 0 0 Left 0
WINDOW 39 0 0 Left 0
SYMATTR InstName V7
SYMATTR Value PULSE(0 3.3 0 10n 10n 10u 20u)
SYMBOL diode 1600 -240 R270
WINDOW 0 32 32 VTop 2
WINDOW 3 0 32 VBottom 2
SYMATTR InstName D2
SYMATTR Value 1N914
TEXT -466 672 Left 2 !.tran 20m
