Version 4
SHEET 1 2476 756
WIRE -304 -112 -624 -112
WIRE -160 -112 -304 -112
WIRE 112 -112 -160 -112
WIRE 208 -112 192 -112
WIRE 224 -112 208 -112
WIRE 400 -112 320 -112
WIRE 480 -112 400 -112
WIRE 560 -112 480 -112
WIRE 1040 -112 560 -112
WIRE 1232 -112 1120 -112
WIRE 1344 -112 1232 -112
WIRE -624 -96 -624 -112
WIRE 480 -96 480 -112
WIRE 1232 -96 1232 -112
WIRE 1344 -96 1344 -112
WIRE -160 -48 -160 -112
WIRE 1104 -48 1104 -64
WIRE -624 0 -624 -16
WIRE 1056 0 1056 -64
WIRE 1232 0 1232 -16
WIRE 1344 0 1344 -32
WIRE 112 32 112 -112
WIRE 208 32 208 -112
WIRE 304 32 304 -64
WIRE 400 32 400 -112
WIRE -160 80 -160 32
WIRE 0 80 -160 80
WIRE 1056 96 1056 80
WIRE 528 112 512 112
WIRE 608 112 592 112
WIRE -160 176 -160 160
WIRE -160 176 -192 176
WIRE -96 176 -160 176
WIRE 0 176 -16 176
WIRE 608 176 512 176
WIRE -160 192 -160 176
WIRE 528 240 512 240
WIRE 608 240 592 240
WIRE 0 272 -160 272
WIRE -160 320 -160 272
WIRE 304 400 304 320
WIRE -288 448 -608 448
WIRE -160 448 -160 400
WIRE -160 448 -288 448
WIRE 112 448 112 320
WIRE 112 448 -160 448
WIRE 208 448 208 320
WIRE 208 448 192 448
WIRE 224 448 208 448
WIRE 400 448 400 320
WIRE 400 448 320 448
WIRE 480 448 400 448
WIRE 576 448 480 448
WIRE 1040 448 576 448
WIRE 1232 448 1120 448
WIRE 1344 448 1232 448
WIRE -608 464 -608 448
WIRE 480 464 480 448
WIRE 1232 464 1232 448
WIRE 1344 464 1344 448
WIRE 1056 544 1056 496
WIRE -608 560 -608 544
WIRE 1232 560 1232 544
WIRE 1344 560 1344 528
WIRE 1056 640 1056 624
FLAG -624 0 0
FLAG 1232 0 0
FLAG 1344 0 0
FLAG 1056 96 0
FLAG 608 176 0
FLAG 1104 -48 0
FLAG 1232 560 0
FLAG 1344 560 0
FLAG 1056 640 0
FLAG 1104 496 0
FLAG 608 112 0
FLAG 608 240 0
FLAG -608 560 0
FLAG -192 176 0
FLAG 480 -32 0
FLAG 480 528 0
FLAG -304 -112 +12V_IN
FLAG -288 448 +5V_IN
FLAG 576 448 +5V
FLAG 560 -112 +12V
SYMBOL nmos 224 -64 R270
WINDOW 0 85 54 VTop 2
WINDOW 3 55 71 VTop 2
SYMATTR InstName Q1
SYMATTR Value BSZ088N03LS
SYMBOL res 96 -96 R270
WINDOW 0 32 56 VTop 2
WINDOW 3 0 56 VBottom 2
SYMATTR InstName R1
SYMATTR Value 30m
SYMBOL voltage -624 -112 R0
WINDOW 123 0 0 Left 2
WINDOW 39 0 0 Left 2
SYMATTR InstName V1
SYMATTR Value PWL(0 0 2m 12)
SYMBOL nmos 224 400 M90
WINDOW 0 -15 72 VLeft 2
WINDOW 3 52 55 VTop 2
SYMATTR InstName Q2
SYMATTR Value BSZ088N03LS
SYMBOL res 96 464 R270
WINDOW 0 32 56 VTop 2
WINDOW 3 0 56 VBottom 2
SYMATTR InstName R2
SYMATTR Value 30m
SYMBOL sw 1136 -112 M270
WINDOW 0 28 24 VLeft 2
WINDOW 3 -29 20 VLeft 2
SYMATTR InstName S1
SYMBOL res 1216 -112 R0
SYMATTR InstName R3
SYMATTR Value 12
SYMBOL cap 1328 -96 R0
WINDOW 123 27 66 Left 2
WINDOW 3 43 35 Left 2
SYMATTR Value2 Rser=10m
SYMATTR Value 1m
SYMATTR InstName C1
SYMBOL voltage 1056 -16 R0
WINDOW 123 24 138 Left 2
WINDOW 39 24 117 Left 2
SYMATTR InstName V2
SYMATTR Value PWL(0 0 60m 0 60.01m 1)
SYMBOL cap 528 128 R270
WINDOW 0 32 32 VTop 2
WINDOW 3 0 32 VBottom 2
SYMATTR InstName C2
SYMATTR Value 220n
SYMBOL cap 528 256 R270
WINDOW 0 32 32 VTop 2
WINDOW 3 0 32 VBottom 2
SYMATTR InstName C3
SYMATTR Value 220n
SYMBOL LTC4226-1 256 192 R0
SYMATTR InstName U1
SYMBOL sw 1136 448 M270
WINDOW 0 29 24 VLeft 2
WINDOW 3 -26 16 VLeft 2
SYMATTR InstName S2
SYMBOL res 1216 448 R0
SYMATTR InstName R6
SYMATTR Value 5
SYMBOL cap 1328 464 R0
WINDOW 123 27 67 Left 2
WINDOW 3 41 32 Left 2
SYMATTR Value2 Rser=10m
SYMATTR Value 1m
SYMATTR InstName C4
SYMBOL voltage 1056 528 R0
WINDOW 123 24 138 Left 2
WINDOW 39 24 117 Left 2
SYMATTR InstName V3
SYMATTR Value PWL(0 0 60m 0 60.01m 1)
SYMBOL voltage -608 448 R0
WINDOW 123 0 0 Left 2
WINDOW 39 0 0 Left 2
SYMATTR InstName V4
SYMATTR Value PWL(0 0 2m 5)
SYMBOL res -176 -64 R0
SYMATTR InstName R4
SYMATTR Value 10k
SYMBOL res -176 304 R0
SYMATTR InstName R5
SYMATTR Value 10k
SYMBOL res -176 176 R0
SYMATTR InstName R7
SYMATTR Value 10k
SYMBOL res -176 64 R0
SYMATTR InstName R8
SYMATTR Value 10k
SYMBOL res 0 160 R90
WINDOW 0 0 56 VBottom 2
WINDOW 3 32 56 VTop 2
SYMATTR InstName R9
SYMATTR Value 0
SYMBOL cap 464 -96 R0
SYMATTR InstName C5
SYMATTR Value 10µ
SYMBOL cap 464 464 R0
SYMATTR InstName C6
SYMATTR Value 10µ
TEXT 968 376 Left 2 !.model SW SW(Ron=1m Roff=1K Vt=.5 Vh=.1)
TEXT 1440 608 Left 2 !.tran 70m
TEXT 968 -224 Left 2 ;NOT ON BACKPLANE:
TEXT 960 -192 Left 2 ;SIMULATING DRIVE BEING PLUGGED IN
TEXT 0 536 Left 2 ;Close to specs of the SSM6K513NU,LF
TEXT 112 -216 Left 2 ;Close to specs of the SSM6K513NU,LF
TEXT -744 -152 Left 2 ;POWER INPUT
TEXT -352 -256 Left 2 ;HOTSWAP BACKPLANE
LINE Normal 272 480 224 528
LINE Normal 256 480 272 480
LINE Normal 272 480 256 480 2
LINE Normal 272 496 272 480
LINE Normal 368 -208 320 -160
LINE Normal 336 -160 320 -160
LINE Normal 320 -160 336 -160 2
LINE Normal 320 -176 320 -160
RECTANGLE Normal 1568 672 944 -256 2
RECTANGLE Normal -416 624 -768 -176 2
RECTANGLE Normal 896 672 -384 -272 2
