Version 4
SHEET 1 880 680
WIRE 272 112 112 112
WIRE 320 176 256 176
WIRE 416 176 352 176
WIRE 112 192 112 112
WIRE 112 192 80 192
WIRE 144 192 128 192
WIRE 272 208 272 112
WIRE 272 208 256 208
WIRE 320 256 320 176
WIRE 416 256 320 256
WIRE 128 272 128 192
WIRE 352 272 352 176
WIRE 352 272 128 272
WIRE 416 288 416 256
FLAG 80 192 Vout
FLAG 416 288 0
SYMBOL AutoGenerated\\78L05 224 192 R0
SYMATTR InstName U1
SYMBOL voltage 416 160 R0
SYMATTR InstName V1
SYMATTR Value 9
TEXT 12 312 Left 2 !.dc V1 0 9 0.1
