Version 4
SHEET 1 1000 680
WIRE 448 -448 208 -448
WIRE 208 -416 208 -448
WIRE 0 -368 -80 -368
WIRE 80 -368 0 -368
WIRE 112 -368 80 -368
WIRE 336 -368 304 -368
WIRE 448 -368 448 -448
WIRE 448 -368 336 -368
WIRE 528 -368 448 -368
WIRE -80 -352 -80 -368
WIRE 0 -352 0 -368
WIRE 336 -352 336 -368
WIRE 448 -352 448 -368
WIRE 528 -352 528 -368
WIRE -80 -256 -80 -272
WIRE 0 -256 0 -288
WIRE 80 -256 80 -368
WIRE 112 -256 80 -256
WIRE 336 -256 336 -272
WIRE 336 -256 304 -256
WIRE 448 -256 448 -288
WIRE 528 -256 528 -272
WIRE 208 -192 208 -208
WIRE 240 -144 64 -144
WIRE 336 -144 336 -256
WIRE 336 -144 240 -144
WIRE 64 -128 64 -144
WIRE 240 -128 240 -144
WIRE 336 -128 336 -144
WIRE 336 -32 336 -48
WIRE 64 -16 64 -48
WIRE 240 -16 240 -48
WIRE 16 64 0 64
WIRE 0 160 0 64
WIRE 112 160 0 160
WIRE 192 160 112 160
FLAG -80 -256 0
FLAG 208 -192 0
FLAG 336 -32 0
FLAG 448 -256 0
FLAG 528 -256 0
FLAG 528 -368 OUT
FLAG -80 -368 IN
FLAG 0 -256 0
FLAG 240 80 0
FLAG 64 80 0
FLAG 112 240 0
SYMBOL voltage -80 -368 R0
WINDOW 123 24 130 Left 2
WINDOW 39 0 0 Left 0
SYMATTR InstName V1
SYMATTR Value 5.5
SYMBOL res 320 -368 R0
SYMATTR InstName R1
SYMATTR Value 15k
SYMBOL res 320 -144 R0
SYMATTR InstName R2
SYMATTR Value 12k
SYMBOL cap 432 -352 R0
SYMATTR InstName C1
SYMATTR Value 4.7µ
SYMBOL res 512 -368 R0
SYMATTR InstName Rload1
SYMATTR Value 100
SYMBOL cap -16 -352 R0
SYMATTR InstName C2
SYMATTR Value 4.7µ
SYMBOL ADP1708 208 -304 R0
SYMATTR InstName U1
SYMBOL nmos 192 -16 R0
SYMATTR InstName M1
SYMATTR Value 2N7002
SYMBOL res 224 -144 R0
SYMATTR InstName R3
SYMATTR Value 8.06k
SYMBOL nmos 16 -16 R0
SYMATTR InstName M2
SYMATTR Value 2N7002
SYMBOL res 48 -144 R0
SYMATTR InstName R4
SYMATTR Value 7.5k
SYMBOL voltage 112 144 R0
SYMATTR InstName V2
SYMATTR Value 5
TEXT -56 -160 Left 2 !.tran 10m startup
TEXT 472 -216 Left 2 ;10K/2K = 5V
TEXT 472 -192 Left 2 ;10K/3.2K = 3.3V
TEXT 472 -168 Left 2 ;10K/20K = 1.2V
TEXT 472 -64 Left 2 ;15K/2.87K = 5V
TEXT 472 -40 Left 2 ;15K/4.75K = 3.3V
TEXT 472 -16 Left 2 ;15K/12K = 1.8V
TEXT 200 112 Left 2 ;M1 = 3.3V
TEXT 64 136 Left 2 ;Both = 4.89V
TEXT 8 112 Left 2 ;M2 = 3.4V
