Version 4
SHEET 1 2296 1220
WIRE 1808 112 272 112
WIRE 800 336 512 336
WIRE 992 336 800 336
WIRE 1168 336 992 336
WIRE 1280 336 1168 336
WIRE 1424 336 1280 336
WIRE 512 352 512 336
WIRE 1168 368 1168 336
WIRE 1280 368 1280 336
WIRE 992 400 992 336
WIRE 1424 416 1424 336
WIRE 1472 416 1424 416
WIRE 1472 432 1472 416
WIRE 1168 464 1168 432
WIRE 1280 464 1280 448
WIRE 1280 464 1168 464
WIRE 1280 480 1280 464
WIRE 512 512 512 432
WIRE 1472 528 1472 512
WIRE 1472 528 1424 528
WIRE 1280 576 1280 544
WIRE 1424 576 1424 528
WIRE 1424 576 1280 576
WIRE 1520 576 1424 576
WIRE 1632 576 1584 576
WIRE 1808 576 1808 112
WIRE 1808 576 1632 576
WIRE 1632 592 1632 576
WIRE 1808 592 1808 576
WIRE 1632 688 1632 656
WIRE 1808 704 1808 672
WIRE 272 752 272 112
WIRE 800 784 800 336
WIRE 1280 800 1280 576
WIRE 272 848 272 832
WIRE 640 848 272 848
WIRE 1088 880 960 880
WIRE 1232 880 1168 880
WIRE 272 912 272 848
WIRE 400 912 272 912
WIRE 528 912 480 912
WIRE 640 912 592 912
WIRE 272 928 272 912
WIRE 496 976 384 976
WIRE 640 976 496 976
WIRE 384 992 384 976
WIRE 496 992 496 976
WIRE 992 1008 992 480
WIRE 992 1008 960 1008
WIRE 1104 1008 992 1008
WIRE 1280 1008 1280 896
WIRE 1280 1008 1184 1008
WIRE 272 1024 272 1008
WIRE 992 1024 992 1008
WIRE 1280 1024 1280 1008
WIRE 640 1040 592 1040
WIRE 496 1072 496 1056
WIRE 384 1104 384 1072
WIRE 592 1104 592 1040
WIRE 592 1104 384 1104
WIRE 992 1104 992 1088
WIRE 384 1120 384 1104
WIRE 1280 1120 1280 1104
WIRE 800 1152 800 1104
WIRE 384 1200 384 1184
FLAG 1280 1120 0
FLAG 384 1200 0
FLAG 496 1072 0
FLAG 272 1024 0
FLAG 800 1152 0
FLAG 992 1104 0
FLAG 1632 688 0
FLAG 1808 704 0
FLAG 512 512 0
SYMBOL voltage 512 336 R0
SYMATTR InstName V1
SYMATTR Value 12
SYMBOL voltage 1808 576 R0
WINDOW 123 0 0 Left 0
WINDOW 39 0 0 Left 0
SYMATTR InstName V2
SYMATTR Value PULSE(13.3 14 1m 10m 1 1 1 1)
SYMBOL PowerProducts\\LT1243 800 944 R0
SYMATTR InstName U1
SYMBOL RES 1264 1008 R0
SYMATTR InstName R1
SYMATTR Value 2
SYMBOL cap 368 1120 R0
SYMATTR InstName C1
SYMATTR Value 220p
SYMBOL cap 480 992 R0
SYMATTR InstName C2
SYMATTR Value .1µ
SYMBOL cap 592 896 R90
WINDOW 0 0 32 VBottom 2
WINDOW 3 32 32 VTop 2
SYMATTR InstName C3
SYMATTR Value .01µ
SYMBOL res 496 896 R90
WINDOW 0 0 56 VBottom 2
WINDOW 3 32 56 VTop 2
SYMATTR InstName R2
SYMATTR Value 200K
SYMBOL res 368 976 R0
SYMATTR InstName R3
SYMATTR Value 12K
SYMBOL res 256 912 R0
SYMATTR InstName R4
SYMATTR Value 20K
SYMBOL res 1200 992 R90
WINDOW 0 0 56 VBottom 2
WINDOW 3 32 56 VTop 2
SYMATTR InstName R5
SYMATTR Value 1K
SYMBOL NMOS 1232 800 R0
SYMATTR InstName Q1
SYMATTR Value Si7336ADP
SYMBOL res 1184 864 R90
WINDOW 0 0 56 VBottom 2
WINDOW 3 32 56 VTop 2
SYMATTR InstName R6
SYMATTR Value 10
SYMBOL res 256 736 R0
SYMATTR InstName R7
SYMATTR Value 89.36K
SYMBOL res 976 384 R0
SYMATTR InstName R9
SYMATTR Value 1.32Meg
SYMBOL res 1264 352 R0
SYMATTR InstName R10
SYMATTR Value 660K
SYMBOL cap 1152 368 R0
SYMATTR InstName C7
SYMATTR Value 470p
SYMBOL ind2 1456 528 M180
WINDOW 0 -2 79 Right 2
WINDOW 3 -2 44 Right 2
SYMATTR InstName L3
SYMATTR Value 100µ
SYMATTR SpiceLine Rser=.05
SYMBOL schottky 1520 560 M90
WINDOW 0 0 32 VBottom 2
WINDOW 3 32 32 VTop 2
SYMATTR InstName D3
SYMATTR Value MBRS340
SYMBOL diode 1264 544 M180
WINDOW 0 28 62 Left 2
WINDOW 3 24 0 Left 2
SYMATTR InstName D5
SYMATTR Value MURS320
SYMBOL cap 976 1024 R0
SYMATTR InstName C9
SYMATTR Value 25p
SYMBOL polcap 1616 592 R0
SYMATTR InstName C10
SYMATTR Value 10µ
SYMATTR SpiceLine Rser=.1
TEXT 1504 1016 Left 2 !.tran 13m startup
