Version 4
SHEET 1 2344 1220
WIRE -64 0 -144 0
WIRE -16 0 -64 0
WIRE 288 0 -16 0
WIRE 480 0 288 0
WIRE 608 0 480 0
WIRE 800 0 688 0
WIRE -144 32 -144 0
WIRE -64 48 -64 0
WIRE 480 64 480 0
WIRE 688 64 656 64
WIRE 992 64 688 64
WIRE 688 80 688 64
WIRE 800 112 800 0
WIRE 880 112 800 112
WIRE 992 112 992 64
WIRE 992 112 944 112
WIRE 1104 112 992 112
WIRE 1216 112 1104 112
WIRE -144 128 -144 112
WIRE -64 128 -64 112
WIRE -64 128 -144 128
WIRE 288 128 288 0
WIRE 320 128 288 128
WIRE 656 128 656 64
WIRE 656 128 640 128
WIRE 800 128 800 112
WIRE 1104 128 1104 112
WIRE 1216 128 1216 112
WIRE -144 144 -144 128
WIRE 992 144 992 112
WIRE -64 160 -64 128
WIRE 688 160 688 144
WIRE 320 208 64 208
WIRE 752 208 640 208
WIRE 1104 224 1104 192
WIRE 1216 224 1216 208
WIRE 992 240 992 224
WIRE 992 240 928 240
WIRE -144 256 -144 224
WIRE -64 256 -64 224
WIRE -64 256 -144 256
WIRE 992 256 992 240
WIRE -144 272 -144 256
WIRE -64 272 -64 256
WIRE 160 288 96 288
WIRE 256 288 240 288
WIRE 320 288 256 288
WIRE 800 288 800 224
WIRE 800 288 640 288
WIRE 96 304 96 288
WIRE 256 304 256 288
WIRE 800 304 800 288
WIRE 992 352 992 336
WIRE -144 368 -144 352
WIRE -64 368 -64 336
WIRE -64 368 -144 368
WIRE 480 368 480 352
WIRE -64 400 -64 368
WIRE 96 400 96 368
WIRE 256 400 256 368
WIRE 800 400 800 384
WIRE 64 448 64 208
WIRE 928 448 928 240
WIRE 928 448 64 448
FLAG -16 0 SUPERCAP
FLAG -64 400 0
FLAG 1216 112 OUT
FLAG 1104 224 0
FLAG 1216 224 0
FLAG 992 352 0
FLAG 96 400 0
FLAG 480 368 0
FLAG 800 400 0
FLAG 688 160 0
FLAG 256 400 0
SYMBOL cap -80 272 R0
SYMATTR InstName C1
SYMATTR Value 1
SYMBOL cap -80 160 R0
SYMATTR InstName C2
SYMATTR Value 1
SYMBOL cap -80 48 R0
SYMATTR InstName C3
SYMATTR Value 1
SYMBOL res -160 256 R0
SYMATTR InstName R1
SYMATTR Value 100k
SYMBOL res -160 128 R0
SYMATTR InstName R2
SYMATTR Value 100k
SYMBOL res -160 16 R0
SYMATTR InstName R3
SYMATTR Value 100k
SYMBOL PowerProducts\\LT1619 480 208 R0
SYMATTR InstName U1
SYMBOL IND 592 16 R270
WINDOW 0 32 56 VTop 2
WINDOW 3 5 56 VBottom 2
SYMATTR InstName L1
SYMATTR Value 12µ
SYMBOL NMOS 752 128 R0
WINDOW 0 60 20 Left 2
WINDOW 3 60 84 Left 2
SYMATTR InstName Q1
SYMATTR Value Si9804DY
SYMBOL cap 240 304 R0
SYMATTR InstName C4
SYMATTR Value 150p
SYMBOL cap 80 304 R0
SYMATTR InstName C5
SYMATTR Value .015µ
SYMBOL RES 784 288 R0
SYMATTR InstName R4
SYMATTR Value 50m
SYMBOL res 976 240 R0
SYMATTR InstName R5
SYMATTR Value 10k
SYMBOL res 976 128 R0
SYMATTR InstName R6
SYMATTR Value 100k
SYMBOL res 256 272 R90
WINDOW 0 0 56 VBottom 2
WINDOW 3 32 56 VTop 2
SYMATTR InstName R7
SYMATTR Value 25K
SYMBOL cap 672 80 R0
SYMATTR InstName C6
SYMATTR Value .1µ
SYMBOL polcap 1088 128 R0
SYMATTR InstName C7
SYMATTR Value 100µ
SYMATTR SpiceLine Rser=0.065
SYMBOL schottky 880 128 R270
WINDOW 0 32 32 VTop 2
WINDOW 3 0 32 VBottom 2
SYMATTR InstName D1
SYMATTR Value MBR735
SYMBOL res 1200 112 R0
SYMATTR InstName Rload1
SYMATTR Value 40
TEXT -536 112 Left 2 !.ic V(SUPERCAP) 11.7
TEXT -538 424 Left 2 !.tran 100
