Version 4
SHEET 1 2344 1220
WIRE -64 0 -144 0
WIRE -16 0 -64 0
WIRE 64 0 -16 0
WIRE 912 0 64 0
WIRE 1168 0 992 0
WIRE -144 32 -144 0
WIRE 64 32 64 0
WIRE -64 48 -64 0
WIRE 464 64 176 64
WIRE 704 64 464 64
WIRE 1472 64 704 64
WIRE 464 80 464 64
WIRE 176 96 176 64
WIRE 64 112 64 96
WIRE 64 112 -64 112
WIRE -144 128 -144 112
WIRE -64 128 -64 112
WIRE -64 128 -144 128
WIRE -144 144 -144 128
WIRE 704 144 704 64
WIRE 1168 144 1168 0
WIRE 1248 144 1168 144
WIRE 1360 144 1312 144
WIRE 1392 144 1360 144
WIRE 1472 144 1472 64
WIRE 1472 144 1392 144
WIRE -64 160 -64 128
WIRE 64 160 64 112
WIRE 1168 160 1168 144
WIRE 1360 160 1360 144
WIRE 1472 160 1472 144
WIRE 464 176 464 144
WIRE 176 208 176 176
WIRE 544 208 176 208
WIRE -64 240 -64 224
WIRE 64 240 64 224
WIRE 64 240 -64 240
WIRE 992 240 864 240
WIRE 1120 240 1072 240
WIRE -144 256 -144 224
WIRE -64 256 -64 240
WIRE -64 256 -144 256
WIRE 1360 256 1360 224
WIRE 1472 256 1472 240
WIRE -144 272 -144 256
WIRE -64 272 -64 256
WIRE 64 272 64 240
WIRE 176 272 176 208
WIRE 304 272 176 272
WIRE 432 272 384 272
WIRE 544 272 496 272
WIRE 176 304 176 272
WIRE 400 336 288 336
WIRE 544 336 400 336
WIRE 288 352 288 336
WIRE 400 352 400 336
WIRE -144 368 -144 352
WIRE -64 368 -64 336
WIRE -64 368 -144 368
WIRE 896 368 864 368
WIRE 976 368 896 368
WIRE 1168 368 1168 256
WIRE 1168 368 1056 368
WIRE 64 384 64 336
WIRE 896 384 896 368
WIRE 1168 384 1168 368
WIRE -64 400 -64 368
WIRE 176 400 176 384
WIRE 544 400 496 400
WIRE 400 432 400 416
WIRE 288 464 288 432
WIRE 496 464 496 400
WIRE 496 464 288 464
WIRE 896 464 896 448
WIRE 288 480 288 464
WIRE 704 480 704 464
WIRE 1168 480 1168 464
WIRE 288 560 288 544
FLAG -16 0 SUPERCAP
FLAG -64 400 0
FLAG 1392 144 OUT
FLAG 1360 256 0
FLAG 1472 256 0
FLAG 176 400 0
FLAG 1168 480 0
FLAG 288 560 0
FLAG 400 432 0
FLAG 704 480 0
FLAG 896 464 0
FLAG 464 176 0
FLAG 64 384 0
SYMBOL cap -80 272 R0
SYMATTR InstName C1
SYMATTR Value 10m
SYMBOL cap -80 160 R0
SYMATTR InstName C2
SYMATTR Value 10m
SYMBOL cap -80 48 R0
SYMATTR InstName C3
SYMATTR Value 10m
SYMBOL res -160 256 R0
SYMATTR InstName R1
SYMATTR Value 100k
SYMBOL res -160 128 R0
SYMATTR InstName R2
SYMATTR Value 100k
SYMBOL res -160 16 R0
SYMATTR InstName R3
SYMATTR Value 100k
SYMBOL IND 896 16 R270
WINDOW 0 32 56 VTop 2
WINDOW 3 5 56 VBottom 2
SYMATTR InstName L1
SYMATTR Value 12µ
SYMBOL NMOS 1120 160 R0
WINDOW 0 60 20 Left 2
WINDOW 3 60 84 Left 2
SYMATTR InstName Q1
SYMATTR Value Si9804DY
SYMBOL res 160 288 R0
SYMATTR InstName R5
SYMATTR Value 10k
SYMBOL res 160 80 R0
SYMATTR InstName R6
SYMATTR Value 44k
SYMBOL polcap 1344 160 R0
SYMATTR InstName C7
SYMATTR Value 100µ
SYMATTR SpiceLine Rser=0.065
SYMBOL schottky 1248 160 R270
WINDOW 0 32 32 VTop 2
WINDOW 3 0 32 VBottom 2
SYMATTR InstName D1
SYMATTR Value MBR735
SYMBOL res 1456 144 R0
SYMATTR InstName Rload1
SYMATTR Value 40
SYMBOL RES 1152 368 R0
SYMATTR InstName R8
SYMATTR Value 100m
SYMBOL cap 272 480 R0
SYMATTR InstName C8
SYMATTR Value 220p
SYMBOL cap 384 352 R0
SYMATTR InstName C9
SYMATTR Value .1µ
SYMBOL cap 496 256 R90
WINDOW 0 0 32 VBottom 2
WINDOW 3 32 32 VTop 2
SYMATTR InstName C10
SYMATTR Value .01µ
SYMBOL res 400 256 R90
WINDOW 0 0 56 VBottom 2
WINDOW 3 32 56 VTop 2
SYMATTR InstName R9
SYMATTR Value 100K
SYMBOL res 272 336 R0
SYMATTR InstName R10
SYMATTR Value 12K
SYMBOL res 1072 352 R90
WINDOW 0 0 56 VBottom 2
WINDOW 3 32 56 VTop 2
SYMATTR InstName R12
SYMATTR Value 1K
SYMBOL res 1088 224 R90
WINDOW 0 0 56 VBottom 2
WINDOW 3 32 56 VTop 2
SYMATTR InstName R13
SYMATTR Value 12
SYMBOL cap 880 384 R0
SYMATTR InstName C14
SYMATTR Value 50p
SYMBOL polcap 448 80 R0
SYMATTR InstName C4
SYMATTR Value 10µ
SYMATTR SpiceLine Rser=0.065
SYMBOL PowerProducts\\LT1243 704 304 R0
SYMATTR InstName U1
SYMBOL schottky 80 336 R180
WINDOW 0 24 64 Left 2
WINDOW 3 24 0 Left 2
SYMATTR InstName D2
SYMATTR Value MBR735
SYMBOL schottky 80 224 R180
WINDOW 0 24 64 Left 2
WINDOW 3 24 0 Left 2
SYMATTR InstName D3
SYMATTR Value MBR735
SYMBOL schottky 80 96 R180
WINDOW 0 24 64 Left 2
WINDOW 3 24 0 Left 2
SYMATTR InstName D4
SYMATTR Value MBR735
TEXT -536 112 Left 2 !.ic V(SUPERCAP) 11.7
TEXT -536 424 Left 2 !.tran 0.1
TEXT 1192 -40 Left 2 ;5mF/3 was on for 22ms
TEXT 1192 -8 Left 2 ;3F/3 predicted to be on for 13.2s
