Version 4
SHEET 1 3112 692
WIRE 1712 -512 1328 -512
WIRE 1808 -512 1712 -512
WIRE 1888 -512 1872 -512
WIRE 1984 -512 1968 -512
WIRE 2336 -512 2272 -512
WIRE 2384 -512 2336 -512
WIRE 2512 -512 2464 -512
WIRE 2576 -512 2512 -512
WIRE 2752 -512 2576 -512
WIRE 2576 -496 2576 -512
WIRE 1712 -480 1712 -512
WIRE 2752 -464 2752 -512
WIRE 1984 -416 1952 -416
WIRE 2512 -416 2512 -512
WIRE 2512 -416 2272 -416
WIRE 3056 -416 2896 -416
WIRE 1712 -384 1712 -400
WIRE 1952 -384 1952 -416
WIRE 1952 -384 1712 -384
WIRE 1712 -368 1712 -384
WIRE 1328 -192 1328 -512
WIRE 1392 -192 1328 -192
WIRE 1904 -192 1392 -192
WIRE 2096 -192 1984 -192
WIRE 2144 -192 2096 -192
WIRE 2256 -192 2208 -192
WIRE 2336 -192 2336 -512
WIRE 2336 -192 2256 -192
WIRE 2432 -192 2336 -192
WIRE 2560 -192 2432 -192
WIRE 2704 -192 2560 -192
WIRE 2912 -192 2704 -192
WIRE 2256 -176 2256 -192
WIRE 2432 -176 2432 -192
WIRE 2560 -176 2560 -192
WIRE 2704 -176 2704 -192
WIRE 1328 -160 1328 -192
WIRE 2256 -80 2256 -112
WIRE 2432 -80 2432 -112
WIRE 2432 -80 2256 -80
WIRE 2560 -80 2560 -96
WIRE 2560 -80 2432 -80
WIRE 2704 -80 2704 -96
WIRE 2704 -80 2560 -80
WIRE 2704 -48 2704 -80
WIRE 1184 128 1088 128
WIRE 1280 128 1184 128
WIRE 1408 128 1344 128
WIRE 1488 128 1408 128
WIRE 2064 128 1568 128
WIRE 2912 128 2912 -192
WIRE 2912 128 2064 128
WIRE 1184 144 1184 128
WIRE 1408 144 1408 128
WIRE 1840 192 1616 192
WIRE 1888 192 1840 192
WIRE 1984 192 1968 192
WIRE 2064 192 2064 128
WIRE 2064 192 2048 192
WIRE 1840 208 1840 192
WIRE 1088 224 1088 128
WIRE 1184 240 1184 208
WIRE 1408 240 1408 208
WIRE 1616 256 1616 192
WIRE 2096 272 2096 -192
WIRE 1840 288 1840 272
WIRE 1088 320 1088 304
WIRE 1456 320 1088 320
WIRE 1840 352 1776 352
WIRE 1904 352 1840 352
WIRE 2048 352 1984 352
WIRE 1088 384 1088 320
WIRE 1216 384 1088 384
WIRE 1344 384 1296 384
WIRE 1456 384 1408 384
WIRE 1088 400 1088 384
WIRE 1840 400 1840 352
WIRE 3056 400 3056 -416
WIRE 3056 400 1840 400
WIRE 1312 448 1200 448
WIRE 1456 448 1312 448
WIRE 1200 464 1200 448
WIRE 1312 464 1312 448
WIRE 1808 480 1776 480
WIRE 1920 480 1808 480
WIRE 2096 480 2096 368
WIRE 2096 480 2000 480
WIRE 1088 496 1088 480
WIRE 1808 496 1808 480
WIRE 2096 496 2096 480
WIRE 1456 512 1408 512
WIRE 1312 544 1312 528
WIRE 1200 576 1200 544
WIRE 1408 576 1408 512
WIRE 1408 576 1200 576
WIRE 1808 576 1808 560
WIRE 1200 592 1200 576
WIRE 2096 592 2096 576
WIRE 1616 624 1616 576
WIRE 1200 672 1200 656
FLAG 1328 -32 0
FLAG 2096 592 0
FLAG 1200 672 0
FLAG 1312 544 0
FLAG 1088 496 0
FLAG 1616 624 0
FLAG 1184 240 0
FLAG 1408 240 0
FLAG 1840 288 0
FLAG 2704 -192 OUT
FLAG 2704 -48 0
FLAG 1808 576 0
FLAG 1392 -192 IN
FLAG 2128 -352 0
FLAG 1712 -288 0
FLAG 2752 -368 0
FLAG 2576 -432 0
SYMBOL cap 1312 -160 R0
SYMATTR InstName C1
SYMATTR Value 450
SYMBOL cap 1312 -96 R0
SYMATTR InstName C2
SYMATTR Value 450
SYMBOL PowerProducts\\LT1243 1616 416 R0
SYMATTR InstName U1
SYMBOL RES 2080 480 R0
SYMATTR InstName R1
SYMATTR Value .67
SYMBOL cap 1184 592 R0
SYMATTR InstName C3
SYMATTR Value 220p
SYMBOL cap 1296 464 R0
SYMATTR InstName C4
SYMATTR Value .1µ
SYMBOL cap 1408 368 R90
WINDOW 0 0 32 VBottom 2
WINDOW 3 32 32 VTop 2
SYMATTR InstName C5
SYMATTR Value .01µ
SYMBOL res 1312 368 R90
WINDOW 0 0 56 VBottom 2
WINDOW 3 32 56 VTop 2
SYMATTR InstName R2
SYMATTR Value 200K
SYMBOL res 1184 448 R0
SYMATTR InstName R3
SYMATTR Value 12K
SYMBOL res 1072 384 R0
SYMATTR InstName R4
SYMATTR Value 20K
SYMBOL res 2016 464 R90
WINDOW 0 0 56 VBottom 2
WINDOW 3 32 56 VTop 2
SYMATTR InstName R5
SYMATTR Value 1K
SYMBOL NMOS 2048 272 R0
SYMATTR InstName Q1
SYMATTR Value BSC42DN25NS3
SYMBOL res 2000 336 R90
WINDOW 0 0 56 VBottom 2
WINDOW 3 32 56 VTop 2
SYMATTR InstName R6
SYMATTR Value 10
SYMBOL res 1072 208 R0
SYMATTR InstName R7
SYMATTR Value 125K
SYMBOL cap 1168 144 R0
SYMATTR InstName C6
SYMATTR Value .0022µ
SYMBOL cap 1392 144 R0
SYMATTR InstName C7
SYMATTR Value 100p
SYMBOL schottky 1344 112 R90
WINDOW 0 0 32 VBottom 2
WINDOW 3 32 32 VTop 2
SYMATTR InstName D1
SYMATTR Value BAT54
SYMBOL cap 1824 208 R0
SYMATTR InstName C8
SYMATTR Value 22µ
SYMBOL res 1984 176 R90
WINDOW 0 0 56 VBottom 2
WINDOW 3 32 56 VTop 2
SYMATTR InstName R8
SYMATTR Value 39
SYMBOL schottky 2048 176 R90
WINDOW 0 0 32 VBottom 2
WINDOW 3 32 32 VTop 2
SYMATTR InstName D2
SYMATTR Value BAT54
SYMBOL schottky 2144 -208 M90
WINDOW 0 0 32 VBottom 2
WINDOW 3 32 32 VTop 2
SYMATTR InstName D3
SYMATTR Value MBRS340
SYMBOL ind 1888 -176 R270
WINDOW 0 32 56 VTop 2
WINDOW 3 5 56 VBottom 2
SYMATTR InstName L4
SYMATTR Value 22µ
SYMBOL polcap 2416 -176 R0
SYMATTR InstName C10
SYMATTR Value 3.3µ
SYMBOL res 2544 -192 R0
SYMATTR InstName R11
SYMATTR Value 750
SYMBOL res 1584 112 R90
WINDOW 0 0 56 VBottom 2
WINDOW 3 32 56 VTop 2
SYMATTR InstName R12
SYMATTR Value 510
SYMBOL cap 1792 496 R0
SYMATTR InstName C11
SYMATTR Value 25p
SYMBOL polcap 2240 -176 R0
SYMATTR InstName C12
SYMATTR Value 10µ
SYMATTR SpiceLine Rser=.1
SYMBOL res 2688 -192 R0
SYMATTR InstName Rload1
SYMATTR Value 25
SYMBOL PowerProducts\\LT1963 2128 -464 M0
SYMATTR InstName U2
SYMBOL res 1696 -496 R0
SYMATTR InstName R9
SYMATTR Value 36k
SYMBOL res 1696 -384 R0
SYMATTR InstName R10
SYMATTR Value 9.1k
SYMBOL npn 2816 -464 M0
SYMATTR InstName Q2
SYMATTR Value 2N2222
SYMBOL res 2912 -432 R90
WINDOW 0 0 56 VBottom 2
WINDOW 3 32 56 VTop 2
SYMATTR InstName R13
SYMATTR Value 10k
SYMBOL res 2480 -528 R90
WINDOW 0 0 56 VBottom 2
WINDOW 3 32 56 VTop 2
SYMATTR InstName R14
SYMATTR Value 10k
SYMBOL cap 2560 -496 R0
SYMATTR InstName C9
SYMATTR Value 0.1µ
SYMBOL schottky 1872 -496 M270
WINDOW 0 32 32 VTop 2
WINDOW 3 0 32 VBottom 2
SYMATTR InstName D4
SYMATTR Value MBRS340
SYMBOL res 1984 -528 R90
WINDOW 0 0 56 VBottom 2
WINDOW 3 32 56 VTop 2
SYMATTR InstName R15
SYMATTR Value 10
TEXT 2320 488 Left 2 !.tran 1m startup
TEXT 1456 -232 Left 2 !.ic V(in) 6
TEXT 2544 -248 Left 2 !.ic V(out) 13
