Version 4
SHEET 1 2344 1220
WIRE -64 0 -144 0
WIRE -16 0 -64 0
WIRE 288 0 -16 0
WIRE 480 0 288 0
WIRE 608 0 480 0
WIRE 800 0 688 0
WIRE -144 32 -144 0
WIRE -64 48 -64 0
WIRE 480 64 480 0
WIRE 688 64 656 64
WIRE 992 64 688 64
WIRE 688 80 688 64
WIRE 800 112 800 0
WIRE 880 112 800 112
WIRE 992 112 992 64
WIRE 992 112 944 112
WIRE 1104 112 992 112
WIRE 1216 112 1104 112
WIRE -144 128 -144 112
WIRE -64 128 -64 112
WIRE -64 128 -144 128
WIRE 288 128 288 0
WIRE 320 128 288 128
WIRE 656 128 656 64
WIRE 656 128 640 128
WIRE 800 128 800 112
WIRE 1104 128 1104 112
WIRE 1216 128 1216 112
WIRE -144 144 -144 128
WIRE 992 144 992 112
WIRE -64 160 -64 128
WIRE 688 160 688 144
WIRE 320 208 64 208
WIRE 752 208 640 208
WIRE 1104 224 1104 192
WIRE 1216 224 1216 208
WIRE 992 240 992 224
WIRE 992 240 928 240
WIRE -144 256 -144 224
WIRE -64 256 -64 224
WIRE -64 256 -144 256
WIRE 992 256 992 240
WIRE -144 272 -144 256
WIRE -64 272 -64 256
WIRE 160 288 96 288
WIRE 256 288 240 288
WIRE 320 288 256 288
WIRE 800 288 800 224
WIRE 800 288 640 288
WIRE 96 304 96 288
WIRE 256 304 256 288
WIRE 800 304 800 288
WIRE 992 352 992 336
WIRE -144 368 -144 352
WIRE -64 368 -64 336
WIRE -64 368 -144 368
WIRE 480 368 480 352
WIRE -64 400 -64 368
WIRE 96 400 96 368
WIRE 256 400 256 368
WIRE 800 400 800 384
WIRE 64 448 64 208
WIRE 928 448 928 240
WIRE 928 448 64 448
WIRE 640 656 544 656
WIRE 736 656 640 656
WIRE 864 656 800 656
WIRE 944 656 864 656
WIRE 1536 656 1024 656
WIRE 640 672 640 656
WIRE 864 672 864 656
WIRE 544 688 544 656
WIRE 1296 720 1072 720
WIRE 1360 720 1296 720
WIRE 1456 720 1440 720
WIRE 1536 720 1536 656
WIRE 1536 720 1520 720
WIRE 1296 736 1296 720
WIRE 640 768 640 736
WIRE 864 768 864 736
WIRE 1072 784 1072 720
WIRE 1296 832 1296 800
WIRE 544 848 544 768
WIRE 912 848 544 848
WIRE 1360 880 1232 880
WIRE 1552 880 1440 880
WIRE 544 912 544 848
WIRE 672 912 544 912
WIRE 800 912 752 912
WIRE 912 912 864 912
WIRE 544 928 544 912
WIRE 768 976 656 976
WIRE 912 976 768 976
WIRE 656 992 656 976
WIRE 768 992 768 976
WIRE 1264 1008 1232 1008
WIRE 1344 1008 1264 1008
WIRE 1600 1008 1600 896
WIRE 1600 1008 1424 1008
WIRE 544 1024 544 1008
WIRE 1264 1024 1264 1008
WIRE 1600 1024 1600 1008
WIRE 912 1040 864 1040
WIRE 768 1072 768 1056
WIRE 656 1104 656 1072
WIRE 864 1104 864 1040
WIRE 864 1104 656 1104
WIRE 1264 1104 1264 1088
WIRE 656 1120 656 1104
WIRE 1072 1120 1072 1104
WIRE 1600 1120 1600 1104
WIRE 656 1200 656 1184
FLAG -16 0 SUPERCAP
FLAG -64 400 0
FLAG 1216 112 OUT
FLAG 1104 224 0
FLAG 1216 224 0
FLAG 992 352 0
FLAG 96 400 0
FLAG 480 368 0
FLAG 800 400 0
FLAG 688 160 0
FLAG 256 400 0
FLAG 1600 1120 0
FLAG 656 1200 0
FLAG 768 1072 0
FLAG 544 1024 0
FLAG 1072 1120 0
FLAG 640 768 0
FLAG 864 768 0
FLAG 1296 832 0
FLAG 1264 1104 0
SYMBOL cap -80 272 R0
SYMATTR InstName C1
SYMATTR Value 1
SYMBOL cap -80 160 R0
SYMATTR InstName C2
SYMATTR Value 1
SYMBOL cap -80 48 R0
SYMATTR InstName C3
SYMATTR Value 1
SYMBOL res -160 256 R0
SYMATTR InstName R1
SYMATTR Value 100k
SYMBOL res -160 128 R0
SYMATTR InstName R2
SYMATTR Value 100k
SYMBOL res -160 16 R0
SYMATTR InstName R3
SYMATTR Value 100k
SYMBOL PowerProducts\\LT1619 480 208 R0
SYMATTR InstName U1
SYMBOL IND 592 16 R270
WINDOW 0 32 56 VTop 2
WINDOW 3 5 56 VBottom 2
SYMATTR InstName L1
SYMATTR Value 12µ
SYMBOL NMOS 752 128 R0
WINDOW 0 60 20 Left 2
WINDOW 3 60 84 Left 2
SYMATTR InstName Q1
SYMATTR Value Si9804DY
SYMBOL cap 240 304 R0
SYMATTR InstName C4
SYMATTR Value 150p
SYMBOL cap 80 304 R0
SYMATTR InstName C5
SYMATTR Value .015µ
SYMBOL RES 784 288 R0
SYMATTR InstName R4
SYMATTR Value 50m
SYMBOL res 976 240 R0
SYMATTR InstName R5
SYMATTR Value 10k
SYMBOL res 976 128 R0
SYMATTR InstName R6
SYMATTR Value 100k
SYMBOL res 256 272 R90
WINDOW 0 0 56 VBottom 2
WINDOW 3 32 56 VTop 2
SYMATTR InstName R7
SYMATTR Value 25K
SYMBOL cap 672 80 R0
SYMATTR InstName C6
SYMATTR Value .1µ
SYMBOL polcap 1088 128 R0
SYMATTR InstName C7
SYMATTR Value 100µ
SYMATTR SpiceLine Rser=0.065
SYMBOL schottky 880 128 R270
WINDOW 0 32 32 VTop 2
WINDOW 3 0 32 VBottom 2
SYMATTR InstName D1
SYMATTR Value MBR735
SYMBOL res 1200 112 R0
SYMATTR InstName Rload1
SYMATTR Value 40
SYMBOL RES 1584 1008 R0
SYMATTR InstName R8
SYMATTR Value .67
SYMBOL cap 640 1120 R0
SYMATTR InstName C8
SYMATTR Value 220p
SYMBOL cap 752 992 R0
SYMATTR InstName C9
SYMATTR Value .1µ
SYMBOL cap 864 896 R90
WINDOW 0 0 32 VBottom 2
WINDOW 3 32 32 VTop 2
SYMATTR InstName C10
SYMATTR Value .01µ
SYMBOL res 768 896 R90
WINDOW 0 0 56 VBottom 2
WINDOW 3 32 56 VTop 2
SYMATTR InstName R9
SYMATTR Value 100K
SYMBOL res 640 976 R0
SYMATTR InstName R10
SYMATTR Value 12K
SYMBOL res 528 912 R0
SYMATTR InstName R11
SYMATTR Value 20K
SYMBOL res 1440 992 R90
WINDOW 0 0 56 VBottom 2
WINDOW 3 32 56 VTop 2
SYMATTR InstName R12
SYMATTR Value 1K
SYMBOL res 1456 864 R90
WINDOW 0 0 56 VBottom 2
WINDOW 3 32 56 VTop 2
SYMATTR InstName R13
SYMATTR Value 12
SYMBOL res 528 672 R0
SYMATTR InstName R14
SYMATTR Value 152K
SYMBOL cap 624 672 R0
SYMATTR InstName C11
SYMATTR Value .0022µ
SYMBOL cap 848 672 R0
SYMATTR InstName C12
SYMATTR Value 100p
SYMBOL schottky 800 640 R90
WINDOW 0 0 32 VBottom 2
WINDOW 3 32 32 VTop 2
SYMATTR InstName D2
SYMATTR Value BAT54
SYMBOL cap 1280 736 R0
SYMATTR InstName C13
SYMATTR Value 22µ
SYMBOL res 1456 704 R90
WINDOW 0 0 56 VBottom 2
WINDOW 3 32 56 VTop 2
SYMATTR InstName R15
SYMATTR Value 39
SYMBOL schottky 1520 704 R90
WINDOW 0 0 32 VBottom 2
WINDOW 3 32 32 VTop 2
SYMATTR InstName D3
SYMATTR Value BAT54
SYMBOL res 1040 640 R90
WINDOW 0 0 56 VBottom 2
WINDOW 3 32 56 VTop 2
SYMATTR InstName R16
SYMATTR Value 510
SYMBOL PowerProducts\\LT1245 1072 944 R0
SYMATTR InstName U3
SYMBOL cap 1248 1024 R0
SYMATTR InstName C14
SYMATTR Value 50p
SYMBOL NMOS 1552 800 R0
WINDOW 0 60 20 Left 2
WINDOW 3 60 84 Left 2
SYMATTR InstName Q2
SYMATTR Value Si9804DY
TEXT -536 112 Left 2 !.ic V(SUPERCAP) 11.7
TEXT -538 424 Left 2 !.tran 100
